90801418
  -OEChem-05282411042D

 22 19  0     0  0  0  0  0  0999 V2000
    5.2400    3.8600    0.0000 C   0  0  0  0  0  0  0  0  0  0  0  0
    4.2400    3.8600    0.0000 C   0  0  0  0  0  0  0  0  0  0  0  0
    5.2400    0.6200    0.0000 C   0  0  0  0  0  0  0  0  0  0  0  0
    4.2400    0.6200    0.0000 C   0  0  0  0  0  0  0  0  0  0  0  0
    0.3100    2.2400    0.0000 C   0  0  0  0  0  0  0  0  0  0  0  0
    1.3100    2.2400    0.0000 C   0  0  0  0  0  0  0  0  0  0  0  0
    5.2400    3.2400    0.0000 H   0  0  0  0  0  0  0  0  0  0  0  0
    5.8600    3.8600    0.0000 H   0  0  0  0  0  0  0  0  0  0  0  0
    5.2400    4.4800    0.0000 H   0  0  0  0  0  0  0  0  0  0  0  0
    4.2400    4.4800    0.0000 H   0  0  0  0  0  0  0  0  0  0  0  0
    3.6200    3.8600    0.0000 H   0  0  0  0  0  0  0  0  0  0  0  0
    4.2400    3.2400    0.0000 H   0  0  0  0  0  0  0  0  0  0  0  0
    5.2400    0.0000    0.0000 H   0  0  0  0  0  0  0  0  0  0  0  0
    5.8600    0.6200    0.0000 H   0  0  0  0  0  0  0  0  0  0  0  0
    5.2400    1.2400    0.0000 H   0  0  0  0  0  0  0  0  0  0  0  0
    4.2400    1.2400    0.0000 H   0  0  0  0  0  0  0  0  0  0  0  0
    3.6200    0.6200    0.0000 H   0  0  0  0  0  0  0  0  0  0  0  0
    4.2400    0.0000    0.0000 H   0  0  0  0  0  0  0  0  0  0  0  0
    0.0000    2.7769    0.0000 H   0  0  0  0  0  0  0  0  0  0  0  0
    0.0000    1.7031    0.0000 H   0  0  0  0  0  0  0  0  0  0  0  0
    1.6200    1.7031    0.0000 H   0  0  0  0  0  0  0  0  0  0  0  0
    1.6200    2.7769    0.0000 H   0  0  0  0  0  0  0  0  0  0  0  0
  1  2  1  0  0  0  0
  1  7  1  0  0  0  0
  1  8  1  0  0  0  0
  1  9  1  0  0  0  0
  2 10  1  0  0  0  0
  2 11  1  0  0  0  0
  2 12  1  0  0  0  0
  3  4  1  0  0  0  0
  3 13  1  0  0  0  0
  3 14  1  0  0  0  0
  3 15  1  0  0  0  0
  4 16  1  0  0  0  0
  4 17  1  0  0  0  0
  4 18  1  0  0  0  0
  5  6  2  0  0  0  0
  5 19  1  0  0  0  0
  5 20  1  0  0  0  0
  6 21  1  0  0  0  0
  6 22  1  0  0  0  0
M  END
> <PUBCHEM_COMPOUND_CID>
90801418

> <PUBCHEM_COMPOUND_CANONICALIZED>
1

> <PUBCHEM_CACTVS_COMPLEXITY>
0

> <PUBCHEM_CACTVS_HBOND_ACCEPTOR>
0

> <PUBCHEM_CACTVS_HBOND_DONOR>
0

> <PUBCHEM_CACTVS_ROTATABLE_BOND>
0

> <PUBCHEM_CACTVS_SUBSKEYS>
AAADceBgAAAAAAAAAAAAAAAAAAAAAAAAAAAAAAAAAAAAAAAAAAAAGAAAAAAAAACAAAACAAAAAACAAAACAAAAAAAAAAAIAAAAAAAAAAAAAAAAAAAAAAAAAAAAAAAAAAAAAAAAAAAAAAAAAAAAAAAAAAAAAA==

> <PUBCHEM_IUPAC_OPENEYE_NAME>
ethane;ethylene

> <PUBCHEM_IUPAC_CAS_NAME>
ethane;ethene

> <PUBCHEM_IUPAC_NAME_MARKUP>
ethane;ethene

> <PUBCHEM_IUPAC_NAME>
ethane;ethene

> <PUBCHEM_IUPAC_SYSTEMATIC_NAME>
ethane;ethene

> <PUBCHEM_IUPAC_TRADITIONAL_NAME>
ethane;ethylene

> <PUBCHEM_IUPAC_INCHI>
InChI=1S/2C2H6.C2H4/c3*1-2/h2*1-2H3;1-2H2

> <PUBCHEM_IUPAC_INCHIKEY>
YITKKROLOVOZBD-UHFFFAOYSA-N

> <PUBCHEM_EXACT_MASS>
88.125200510

> <PUBCHEM_MOLECULAR_FORMULA>
C6H16

> <PUBCHEM_MOLECULAR_WEIGHT>
88.19

> <PUBCHEM_OPENEYE_CAN_SMILES>
CC.CC.C=C

> <PUBCHEM_OPENEYE_ISO_SMILES>
CC.CC.C=C

> <PUBCHEM_CACTVS_TPSA>
0

> <PUBCHEM_MONOISOTOPIC_WEIGHT>
88.125200510

> <PUBCHEM_TOTAL_CHARGE>
0

> <PUBCHEM_HEAVY_ATOM_COUNT>
6

> <PUBCHEM_ATOM_DEF_STEREO_COUNT>
0

> <PUBCHEM_ATOM_UDEF_STEREO_COUNT>
0

> <PUBCHEM_BOND_DEF_STEREO_COUNT>
0

> <PUBCHEM_BOND_UDEF_STEREO_COUNT>
0

> <PUBCHEM_ISOTOPIC_ATOM_COUNT>
0

> <PUBCHEM_COMPONENT_COUNT>
3

> <PUBCHEM_CACTVS_TAUTO_COUNT>
-1

> <PUBCHEM_COORDINATE_TYPE>
1
5
255

$$$$
