85071141
  -OEChem-05202410342D

 78 79  0     1  0  0  0  0  0999 V2000
    7.1962    2.0000    0.0000 O   0  0  0  0  0  0  0  0  0  0  0  0
    8.0622   -0.5000    0.0000 O   0  0  0  0  0  0  0  0  0  0  0  0
    4.5981    0.5000    0.0000 O   0  0  0  0  0  0  0  0  0  0  0  0
    2.8660    2.5000    0.0000 O   0  0  0  0  0  0  0  0  0  0  0  0
    8.9282   -1.0000    0.0000 O   0  0  0  0  0  0  0  0  0  0  0  0
    3.7320    1.0000    0.0000 O   0  0  0  0  0  0  0  0  0  0  0  0
    6.3301   -0.5000    0.0000 N   0  0  0  0  0  0  0  0  0  0  0  0
    5.4641    2.0000    0.0000 N   0  0  0  0  0  0  0  0  0  0  0  0
    8.0622   -2.5000    0.0000 N   0  0  0  0  0  0  0  0  0  0  0  0
   12.3923   -2.0000    0.0000 N   0  0  0  0  0  0  0  0  0  0  0  0
   14.1244   -2.0000    0.0000 N   0  0  0  0  0  0  0  0  0  0  0  0
   13.2583   -3.5000    0.0000 N   0  0  0  0  0  0  0  0  0  0  0  0
    6.3301    0.5000    0.0000 C   0  0  3  0  0  0  0  0  0  0  0  0
    7.1962   -2.0000    0.0000 C   0  0  3  0  0  0  0  0  0  0  0  0
    7.1962    1.0000    0.0000 C   0  0  3  0  0  0  0  0  0  0  0  0
    6.3301   -2.5000    0.0000 C   0  0  0  0  0  0  0  0  0  0  0  0
    7.1962   -1.0000    0.0000 C   0  0  0  0  0  0  0  0  0  0  0  0
    5.4641    1.0000    0.0000 C   0  0  0  0  0  0  0  0  0  0  0  0
    4.5981    2.5000    0.0000 C   0  0  3  0  0  0  0  0  0  0  0  0
    4.5981    3.5000    0.0000 C   0  0  0  0  0  0  0  0  0  0  0  0
    8.0622    0.5000    0.0000 C   0  0  0  0  0  0  0  0  0  0  0  0
    6.3301   -3.5000    0.0000 C   0  0  0  0  0  0  0  0  0  0  0  0
    8.9282   -2.0000    0.0000 C   0  0  0  0  0  0  0  0  0  0  0  0
    3.7320    4.0000    0.0000 C   0  0  0  0  0  0  0  0  0  0  0  0
    9.7942   -2.5000    0.0000 C   0  0  0  0  0  0  0  0  0  0  0  0
    3.7320    2.0000    0.0000 C   0  0  0  0  0  0  0  0  0  0  0  0
   10.6603   -2.0000    0.0000 C   0  0  0  0  0  0  0  0  0  0  0  0
    7.1962   -4.0000    0.0000 C   0  0  0  0  0  0  0  0  0  0  0  0
    5.4641   -4.0000    0.0000 C   0  0  0  0  0  0  0  0  0  0  0  0
    3.7320    5.0000    0.0000 C   0  0  0  0  0  0  0  0  0  0  0  0
    2.8660    3.5000    0.0000 C   0  0  0  0  0  0  0  0  0  0  0  0
   11.5263   -2.5000    0.0000 C   0  0  0  0  0  0  0  0  0  0  0  0
    7.1962   -5.0000    0.0000 C   0  0  0  0  0  0  0  0  0  0  0  0
    5.4641   -5.0000    0.0000 C   0  0  0  0  0  0  0  0  0  0  0  0
    6.3301   -5.5000    0.0000 C   0  0  0  0  0  0  0  0  0  0  0  0
    2.8660    5.5000    0.0000 C   0  0  0  0  0  0  0  0  0  0  0  0
    2.0000    4.0000    0.0000 C   0  0  0  0  0  0  0  0  0  0  0  0
    2.0000    5.0000    0.0000 C   0  0  0  0  0  0  0  0  0  0  0  0
    2.0000    2.0000    0.0000 C   0  0  0  0  0  0  0  0  0  0  0  0
   13.2583   -2.5000    0.0000 C   0  0  0  0  0  0  0  0  0  0  0  0
    6.8671    0.1900    0.0000 H   0  0  0  0  0  0  0  0  0  0  0  0
    7.7331   -1.6900    0.0000 H   0  0  0  0  0  0  0  0  0  0  0  0
    6.6592    1.3100    0.0000 H   0  0  0  0  0  0  0  0  0  0  0  0
    5.7932   -0.8100    0.0000 H   0  0  0  0  0  0  0  0  0  0  0  0
    6.1181   -1.9174    0.0000 H   0  0  0  0  0  0  0  0  0  0  0  0
    5.7196   -2.6077    0.0000 H   0  0  0  0  0  0  0  0  0  0  0  0
    4.5981    1.8800    0.0000 H   0  0  0  0  0  0  0  0  0  0  0  0
    6.0010    2.3100    0.0000 H   0  0  0  0  0  0  0  0  0  0  0  0
    5.2087    3.3923    0.0000 H   0  0  0  0  0  0  0  0  0  0  0  0
    4.8101    4.0826    0.0000 H   0  0  0  0  0  0  0  0  0  0  0  0
    8.0622   -3.1200    0.0000 H   0  0  0  0  0  0  0  0  0  0  0  0
    7.7522   -0.0369    0.0000 H   0  0  0  0  0  0  0  0  0  0  0  0
    8.5991    0.1900    0.0000 H   0  0  0  0  0  0  0  0  0  0  0  0
    8.3722    1.0369    0.0000 H   0  0  0  0  0  0  0  0  0  0  0  0
    9.3957   -2.9750    0.0000 H   0  0  0  0  0  0  0  0  0  0  0  0
   10.1928   -2.9750    0.0000 H   0  0  0  0  0  0  0  0  0  0  0  0
    7.7331    2.3100    0.0000 H   0  0  0  0  0  0  0  0  0  0  0  0
   11.0588   -1.5250    0.0000 H   0  0  0  0  0  0  0  0  0  0  0  0
   10.2617   -1.5250    0.0000 H   0  0  0  0  0  0  0  0  0  0  0  0
    7.7331   -3.6900    0.0000 H   0  0  0  0  0  0  0  0  0  0  0  0
    4.9272   -3.6900    0.0000 H   0  0  0  0  0  0  0  0  0  0  0  0
    4.2690    5.3100    0.0000 H   0  0  0  0  0  0  0  0  0  0  0  0
    2.8660    2.8800    0.0000 H   0  0  0  0  0  0  0  0  0  0  0  0
   11.1278   -2.9750    0.0000 H   0  0  0  0  0  0  0  0  0  0  0  0
   11.9248   -2.9750    0.0000 H   0  0  0  0  0  0  0  0  0  0  0  0
    7.7331   -5.3100    0.0000 H   0  0  0  0  0  0  0  0  0  0  0  0
    4.9272   -5.3100    0.0000 H   0  0  0  0  0  0  0  0  0  0  0  0
    6.3301   -6.1200    0.0000 H   0  0  0  0  0  0  0  0  0  0  0  0
    2.8660    6.1200    0.0000 H   0  0  0  0  0  0  0  0  0  0  0  0
    1.4631    3.6900    0.0000 H   0  0  0  0  0  0  0  0  0  0  0  0
    1.4631    5.3100    0.0000 H   0  0  0  0  0  0  0  0  0  0  0  0
    1.6900    2.5369    0.0000 H   0  0  0  0  0  0  0  0  0  0  0  0
    1.4631    1.6900    0.0000 H   0  0  0  0  0  0  0  0  0  0  0  0
    2.3100    1.4631    0.0000 H   0  0  0  0  0  0  0  0  0  0  0  0
   14.6613   -2.3100    0.0000 H   0  0  0  0  0  0  0  0  0  0  0  0
   14.1244   -1.3800    0.0000 H   0  0  0  0  0  0  0  0  0  0  0  0
   13.7953   -3.8100    0.0000 H   0  0  0  0  0  0  0  0  0  0  0  0
   12.7214   -3.8100    0.0000 H   0  0  0  0  0  0  0  0  0  0  0  0
  1 15  1  0  0  0  0
  1 57  1  0  0  0  0
  2 17  2  0  0  0  0
  3 18  2  0  0  0  0
  4 26  1  0  0  0  0
  4 39  1  0  0  0  0
  5 23  2  0  0  0  0
  6 26  2  0  0  0  0
  7 13  1  0  0  0  0
  7 17  1  0  0  0  0
  7 44  1  0  0  0  0
  8 18  1  0  0  0  0
  8 19  1  0  0  0  0
  8 48  1  0  0  0  0
  9 14  1  0  0  0  0
  9 23  1  0  0  0  0
  9 51  1  0  0  0  0
 10 32  1  0  0  0  0
 10 40  2  0  0  0  0
 11 40  1  0  0  0  0
 11 75  1  0  0  0  0
 11 76  1  0  0  0  0
 12 40  1  0  0  0  0
 12 77  1  0  0  0  0
 12 78  1  0  0  0  0
 13 15  1  0  0  0  0
 13 18  1  0  0  0  0
 13 41  1  0  0  0  0
 14 16  1  0  0  0  0
 14 17  1  0  0  0  0
 14 42  1  0  0  0  0
 15 21  1  0  0  0  0
 15 43  1  0  0  0  0
 16 22  1  0  0  0  0
 16 45  1  0  0  0  0
 16 46  1  0  0  0  0
 19 20  1  0  0  0  0
 19 26  1  0  0  0  0
 19 47  1  0  0  0  0
 20 24  1  0  0  0  0
 20 49  1  0  0  0  0
 20 50  1  0  0  0  0
 21 52  1  0  0  0  0
 21 53  1  0  0  0  0
 21 54  1  0  0  0  0
 22 28  2  0  0  0  0
 22 29  1  0  0  0  0
 23 25  1  0  0  0  0
 24 30  2  0  0  0  0
 24 31  1  0  0  0  0
 25 27  1  0  0  0  0
 25 55  1  0  0  0  0
 25 56  1  0  0  0  0
 27 32  1  0  0  0  0
 27 58  1  0  0  0  0
 27 59  1  0  0  0  0
 28 33  1  0  0  0  0
 28 60  1  0  0  0  0
 29 34  2  0  0  0  0
 29 61  1  0  0  0  0
 30 36  1  0  0  0  0
 30 62  1  0  0  0  0
 31 37  2  0  0  0  0
 31 63  1  0  0  0  0
 32 64  1  0  0  0  0
 32 65  1  0  0  0  0
 33 35  2  0  0  0  0
 33 66  1  0  0  0  0
 34 35  1  0  0  0  0
 34 67  1  0  0  0  0
 35 68  1  0  0  0  0
 36 38  2  0  0  0  0
 36 69  1  0  0  0  0
 37 38  1  0  0  0  0
 37 70  1  0  0  0  0
 38 71  1  0  0  0  0
 39 72  1  0  0  0  0
 39 73  1  0  0  0  0
 39 74  1  0  0  0  0
M  END
> <PUBCHEM_COMPOUND_CID>
85071141

> <PUBCHEM_COMPOUND_CANONICALIZED>
1

> <PUBCHEM_CACTVS_COMPLEXITY>
852

> <PUBCHEM_CACTVS_HBOND_ACCEPTOR>
7

> <PUBCHEM_CACTVS_HBOND_DONOR>
6

> <PUBCHEM_CACTVS_ROTATABLE_BOND>
16

> <PUBCHEM_CACTVS_SUBSKEYS>
AAADcfB7uAAAAAAAAAAAAAAAAAAAAAAAAAAwYAAAAAAAAAABQAAAHgAQCAAADDzhmAYzCILABgCoAiHSPAACAAEgAAAIiIGIAIgKcDaAkTGVYAAmtgCYiAecyKCOAAAAAAAAAAAAAAAAAAAAAAAAAAAAAA==

> <PUBCHEM_IUPAC_OPENEYE_NAME>
methyl 2-[[2-[[2-(4-guanidinobutanoylamino)-3-phenyl-propanoyl]amino]-3-hydroxy-butanoyl]amino]-3-phenyl-propanoate

> <PUBCHEM_IUPAC_CAS_NAME>
2-[[2-[[2-[[4-(diaminomethylideneamino)-1-oxobutyl]amino]-1-oxo-3-phenylpropyl]amino]-3-hydroxy-1-oxobutyl]amino]-3-phenylpropanoic acid methyl ester

> <PUBCHEM_IUPAC_NAME_MARKUP>
methyl 2-[[2-[[2-[4-(diaminomethylideneamino)butanoylamino]-3-phenylpropanoyl]amino]-3-hydroxybutanoyl]amino]-3-phenylpropanoate

> <PUBCHEM_IUPAC_NAME>
methyl 2-[[2-[[2-[4-(diaminomethylideneamino)butanoylamino]-3-phenylpropanoyl]amino]-3-hydroxybutanoyl]amino]-3-phenylpropanoate

> <PUBCHEM_IUPAC_SYSTEMATIC_NAME>
methyl 2-[[2-[[2-[4-[bis(azanyl)methylideneamino]butanoylamino]-3-phenyl-propanoyl]amino]-3-oxidanyl-butanoyl]amino]-3-phenyl-propanoate

> <PUBCHEM_IUPAC_TRADITIONAL_NAME>
2-[[2-[[2-(4-guanidinobutanoylamino)-3-phenyl-propanoyl]amino]-3-hydroxy-butanoyl]amino]-3-phenyl-propionic acid methyl ester

> <PUBCHEM_IUPAC_INCHI>
InChI=1S/C28H38N6O6/c1-18(35)24(26(38)33-22(27(39)40-2)17-20-12-7-4-8-13-20)34-25(37)21(16-19-10-5-3-6-11-19)32-23(36)14-9-15-31-28(29)30/h3-8,10-13,18,21-22,24,35H,9,14-17H2,1-2H3,(H,32,36)(H,33,38)(H,34,37)(H4,29,30,31)

> <PUBCHEM_IUPAC_INCHIKEY>
QKSIUCFYHKTUCL-UHFFFAOYSA-N

> <PUBCHEM_XLOGP3_AA>
0.7

> <PUBCHEM_EXACT_MASS>
554.28528295

> <PUBCHEM_MOLECULAR_FORMULA>
C28H38N6O6

> <PUBCHEM_MOLECULAR_WEIGHT>
554.6

> <PUBCHEM_OPENEYE_CAN_SMILES>
CC(C(C(=O)NC(CC1=CC=CC=C1)C(=O)OC)NC(=O)C(CC2=CC=CC=C2)NC(=O)CCCN=C(N)N)O

> <PUBCHEM_OPENEYE_ISO_SMILES>
CC(C(C(=O)NC(CC1=CC=CC=C1)C(=O)OC)NC(=O)C(CC2=CC=CC=C2)NC(=O)CCCN=C(N)N)O

> <PUBCHEM_CACTVS_TPSA>
198

> <PUBCHEM_MONOISOTOPIC_WEIGHT>
554.28528295

> <PUBCHEM_TOTAL_CHARGE>
0

> <PUBCHEM_HEAVY_ATOM_COUNT>
40

> <PUBCHEM_ATOM_DEF_STEREO_COUNT>
0

> <PUBCHEM_ATOM_UDEF_STEREO_COUNT>
4

> <PUBCHEM_BOND_DEF_STEREO_COUNT>
0

> <PUBCHEM_BOND_UDEF_STEREO_COUNT>
0

> <PUBCHEM_ISOTOPIC_ATOM_COUNT>
0

> <PUBCHEM_COMPONENT_COUNT>
1

> <PUBCHEM_CACTVS_TAUTO_COUNT>
-1

> <PUBCHEM_COORDINATE_TYPE>
1
5
255

> <PUBCHEM_BONDANNOTATIONS>
15  1  3
13  18  3
14  16  3
19  20  3
22  28  8
22  29  8
24  30  8
24  31  8
28  33  8
29  34  8
30  36  8
31  37  8
33  35  8
34  35  8
36  38  8
37  38  8

$$$$
