107526
  -OEChem-05292410413D

 24 23  0     1  0  0  0  0  0999 V2000
   -0.0176   -1.3519    0.3189 O   0  0  0  0  0  0  0  0  0  0  0  0
   -0.4388    1.2088    1.5932 O   0  0  0  0  0  0  0  0  0  0  0  0
    2.2500    1.3308   -0.6092 O   0  0  0  0  0  0  0  0  0  0  0  0
   -2.3144    0.6445   -1.4872 O   0  0  0  0  0  0  0  0  0  0  0  0
    4.0906   -0.6031    0.0767 O   0  0  0  0  0  0  0  0  0  0  0  0
   -3.0659   -1.5079   -0.1142 O   0  0  0  0  0  0  0  0  0  0  0  0
    0.3471   -0.0924   -0.2555 C   0  0  1  0  0  0  0  0  0  0  0  0
   -0.6452    0.9954    0.1914 C   0  0  1  0  0  0  0  0  0  0  0  0
    1.8171    0.1651    0.1072 C   0  0  1  0  0  0  0  0  0  0  0  0
   -2.1330    0.7333   -0.0781 C   0  0  2  0  0  0  0  0  0  0  0  0
    2.7599   -0.9702   -0.2772 C   0  0  0  0  0  0  0  0  0  0  0  0
   -2.6498   -0.5525    0.5339 C   0  0  0  0  0  0  0  0  0  0  0  0
    0.2588   -0.2053   -1.3428 H   0  0  0  0  0  0  0  0  0  0  0  0
   -0.3684    1.9299   -0.3117 H   0  0  0  0  0  0  0  0  0  0  0  0
    1.9339    0.3780    1.1755 H   0  0  0  0  0  0  0  0  0  0  0  0
   -2.7434    1.5554    0.3115 H   0  0  0  0  0  0  0  0  0  0  0  0
    2.7491   -1.1463   -1.3574 H   0  0  0  0  0  0  0  0  0  0  0  0
    2.5135   -1.9050    0.2347 H   0  0  0  0  0  0  0  0  0  0  0  0
    0.1537   -1.3078    1.2748 H   0  0  0  0  0  0  0  0  0  0  0  0
   -0.6653    0.3906    2.0648 H   0  0  0  0  0  0  0  0  0  0  0  0
   -2.6519   -0.5851    1.6369 H   0  0  0  0  0  0  0  0  0  0  0  0
    2.1591    1.1487   -1.5602 H   0  0  0  0  0  0  0  0  0  0  0  0
   -3.2715    0.6141   -1.6571 H   0  0  0  0  0  0  0  0  0  0  0  0
    4.1126   -0.4767    1.0406 H   0  0  0  0  0  0  0  0  0  0  0  0
  1  7  1  0  0  0  0
  1 19  1  0  0  0  0
  2  8  1  0  0  0  0
  2 20  1  0  0  0  0
  3  9  1  0  0  0  0
  3 22  1  0  0  0  0
  4 10  1  0  0  0  0
  4 23  1  0  0  0  0
  5 11  1  0  0  0  0
  5 24  1  0  0  0  0
  6 12  2  0  0  0  0
  7  8  1  0  0  0  0
  7  9  1  0  0  0  0
  7 13  1  0  0  0  0
  8 10  1  0  0  0  0
  8 14  1  0  0  0  0
  9 11  1  0  0  0  0
  9 15  1  0  0  0  0
 10 12  1  0  0  0  0
 10 16  1  0  0  0  0
 11 17  1  0  0  0  0
 11 18  1  0  0  0  0
 12 21  1  0  0  0  0
M  END
> <PUBCHEM_COMPOUND_CID>
107526

> <PUBCHEM_CONFORMER_RMSD>
0.6

> <PUBCHEM_CONFORMER_DIVERSEORDER>
1
11
38
30
15
16
3
34
14
7
6
24
31
39
13
42
26
32
28
22
5
23
12
37
40
20
10
2
27
29
17
25
41
18
4
8
35
21
36
33
19
9

> <PUBCHEM_MMFF94_PARTIAL_CHARGES>
18
1 -0.68
10 0.34
11 0.28
12 0.45
19 0.4
2 -0.68
20 0.4
21 0.06
22 0.4
23 0.4
24 0.4
3 -0.68
4 -0.68
5 -0.68
6 -0.57
7 0.28
8 0.28
9 0.28

> <PUBCHEM_EFFECTIVE_ROTOR_COUNT>
5

> <PUBCHEM_PHARMACOPHORE_FEATURES>
11
1 1 acceptor
1 1 donor
1 2 acceptor
1 2 donor
1 3 acceptor
1 3 donor
1 4 acceptor
1 4 donor
1 5 acceptor
1 5 donor
1 6 acceptor

> <PUBCHEM_HEAVY_ATOM_COUNT>
12

> <PUBCHEM_ATOM_DEF_STEREO_COUNT>
4

> <PUBCHEM_ATOM_UDEF_STEREO_COUNT>
0

> <PUBCHEM_BOND_DEF_STEREO_COUNT>
0

> <PUBCHEM_BOND_UDEF_STEREO_COUNT>
0

> <PUBCHEM_ISOTOPIC_ATOM_COUNT>
0

> <PUBCHEM_COMPONENT_COUNT>
1

> <PUBCHEM_CACTVS_TAUTO_COUNT>
6

> <PUBCHEM_CONFORMER_ID>
0001A40600000001

> <PUBCHEM_MMFF94_ENERGY>
22.4392

> <PUBCHEM_FEATURE_SELFOVERLAP>
55.85

> <PUBCHEM_SHAPE_FINGERPRINT>
11769659 78 18408601470023866242
12897270 3 18114176423981178861
12932764 1 17458343009384222985
14128692 85 18409171042806029191
14325111 11 18335141994439240804
15775835 57 17676489384862998934
16945 1 18262791844314026449
20201158 50 18412263913128017503
20653085 51 17458350718961432229
21061003 4 17703790331700597001
23552423 10 18333734606480953002
29004967 10 17274829064284364105
3248919 1 18130509643336466508
5084963 1 18334018289218455872
57812782 119 17894911845176785574

> <PUBCHEM_SHAPE_MULTIPOLES>
211.74
5.36
1.4
0.98
2.85
0.12
-0.03
1.61
0.54
-0.27
-0.07
-0.45
-0.31
0.03

> <PUBCHEM_SHAPE_SELFOVERLAP>
403.354

> <PUBCHEM_SHAPE_VOLUME>
128.9

> <PUBCHEM_COORDINATE_TYPE>
2
5
10

$$$$
