139839
  -OEChem-05292414173D

 17 18  0     0  0  0  0  0  0999 V2000
   -0.0001    0.0000    0.0000 C   0  0  0  0  0  0  0  0  0  0  0  0
    0.9488   -0.8089   -0.8486 C   0  0  0  0  0  0  0  0  0  0  0  0
    0.9487    0.8089    0.8486 C   0  0  0  0  0  0  0  0  0  0  0  0
   -0.9488    0.8486   -0.8089 C   0  0  0  0  0  0  0  0  0  0  0  0
   -0.9487   -0.8486    0.8089 C   0  0  0  0  0  0  0  0  0  0  0  0
    2.2117   -0.4970   -0.5214 C   0  0  0  0  0  0  0  0  0  0  0  0
    2.2117    0.4969    0.5213 C   0  0  0  0  0  0  0  0  0  0  0  0
   -2.2117    0.5213   -0.4969 C   0  0  0  0  0  0  0  0  0  0  0  0
   -2.2117   -0.5214    0.4969 C   0  0  0  0  0  0  0  0  0  0  0  0
    0.6637   -1.5282   -1.6033 H   0  0  0  0  0  0  0  0  0  0  0  0
    0.6637    1.5282    1.6032 H   0  0  0  0  0  0  0  0  0  0  0  0
   -0.6637    1.6032   -1.5281 H   0  0  0  0  0  0  0  0  0  0  0  0
   -0.6636   -1.6033    1.5281 H   0  0  0  0  0  0  0  0  0  0  0  0
    3.1031   -0.9152   -0.9601 H   0  0  0  0  0  0  0  0  0  0  0  0
    3.1031    0.9152    0.9601 H   0  0  0  0  0  0  0  0  0  0  0  0
   -3.1031    0.9601   -0.9152 H   0  0  0  0  0  0  0  0  0  0  0  0
   -3.1030   -0.9603    0.9151 H   0  0  0  0  0  0  0  0  0  0  0  0
  1  2  1  0  0  0  0
  1  3  1  0  0  0  0
  1  4  1  0  0  0  0
  1  5  1  0  0  0  0
  2  6  2  0  0  0  0
  2 10  1  0  0  0  0
  3  7  2  0  0  0  0
  3 11  1  0  0  0  0
  4  8  2  0  0  0  0
  4 12  1  0  0  0  0
  5  9  2  0  0  0  0
  5 13  1  0  0  0  0
  6  7  1  0  0  0  0
  6 14  1  0  0  0  0
  7 15  1  0  0  0  0
  8  9  1  0  0  0  0
  8 16  1  0  0  0  0
  9 17  1  0  0  0  0
M  END
> <PUBCHEM_COMPOUND_CID>
139839

> <PUBCHEM_CONFORMER_RMSD>
0.4

> <PUBCHEM_CONFORMER_DIVERSEORDER>
1

> <PUBCHEM_MMFF94_PARTIAL_CHARGES>
17
1 0.55
10 0.15
11 0.15
12 0.15
13 0.15
14 0.15
15 0.15
16 0.15
17 0.15
2 -0.29
3 -0.29
4 -0.29
5 -0.29
6 -0.15
7 -0.15
8 -0.15
9 -0.15

> <PUBCHEM_EFFECTIVE_ROTOR_COUNT>
0

> <PUBCHEM_PHARMACOPHORE_FEATURES>
2
5 1 2 3 6 7 rings
5 1 4 5 8 9 rings

> <PUBCHEM_HEAVY_ATOM_COUNT>
9

> <PUBCHEM_ATOM_DEF_STEREO_COUNT>
0

> <PUBCHEM_ATOM_UDEF_STEREO_COUNT>
0

> <PUBCHEM_BOND_DEF_STEREO_COUNT>
0

> <PUBCHEM_BOND_UDEF_STEREO_COUNT>
0

> <PUBCHEM_ISOTOPIC_ATOM_COUNT>
0

> <PUBCHEM_COMPONENT_COUNT>
1

> <PUBCHEM_CACTVS_TAUTO_COUNT>
1

> <PUBCHEM_CONFORMER_ID>
0002223F00000001

> <PUBCHEM_MMFF94_ENERGY>
29.6483

> <PUBCHEM_FEATURE_SELFOVERLAP>
10.165

> <PUBCHEM_SHAPE_FINGERPRINT>
10857977 72 18114743853585463889
12423570 1 15409233697518624527
16945 1 17917711305321005318
18185500 45 15769769152303166916
21040471 1 17559947895707431072
23552423 10 14620527700250969604
29004967 10 17988647384629602162
369184 2 18273209798528259715
5084963 1 18335423469210112608

> <PUBCHEM_SHAPE_MULTIPOLES>
185.22
3.19
1.04
1.04
0
0
0
0
0
0.38
0
-0.38
0
0.39

> <PUBCHEM_SHAPE_SELFOVERLAP>
408.615

> <PUBCHEM_SHAPE_VOLUME>
99

> <PUBCHEM_COORDINATE_TYPE>
2
5
10

$$$$
